cases/transmission/generated_cases/hourly_case_6.m
%% MATPOWER Case Format : Version 2
function mpc = case2383wp
mpc.version = '2';

%%-----  Power Flow Data  -----%%
%% system MVA base
mpc.baseMVA = 100;
%% bus data
%    bus_i    type    Pd    Qd    Gs    Bs    area    Vm    Va    baseKV    zone    Vmax    Vmin
mpc.bus = [
	1	1	0.0	0.0	0.0	0.0	1	1.0778796520306464	2.813635144921131	220.0	1	1.11	0.95				
	2	1	0.0	0.0	0.0	0.0	1	1.0715868827407482	3.6744627297046915	220.0	1	1.11	0.95				
	3	1	0.0	0.0	0.0	0.0	1	1.0596962035396602	-12.860898973474907	220.0	1	1.11	0.95				
	4	1	0.0	0.0	0.0	0.0	1	1.06401032664	-2.044602998476953	220.0	1	1.11	0.95				
	5	1	0.0	0.0	0.0	0.0	1	1.0518834842102383	-8.19867521174721	220.0	1	1.11	0.95				
	6	1	0.0	0.0	0.0	0.0	1	1.0160285142030931	-4.382781941438332	400.0	1	1.05	0.95				
	7	1	0.0	0.0	0.0	0.0	1	1.0452889175334508	-9.718335179253966	220.0	1	1.11	0.95				
	8	1	0.0	0.0	0.0	0.0	1	1.0211282343725023	-3.3225924586690265	400.0	1	1.05	0.95				
	9	1	0.0	0.0	0.0	0.0	1	1.0251973842193856	-6.4822757864027025	400.0	1	1.05	0.95				
	10	2	9.1725	6.75	0.0	0.0	1	1.075576274904464	-8.510354344300735	220.0	1	1.11	0.95				
	11	1	0.0	0.0	0.0	0.0	1	1.0680963183146432	-1.1303554256341657	220.0	1	1.11	0.95				
	12	1	0.0	0.0	0.0	0.0	1	1.0514496308485397	-12.12038519154955	220.0	1	1.11	0.95				
	13	1	0.0	0.0	0.0	0.0	1	1.047257334614726	-9.588238400093266	220.0	1	1.11	0.95				
	14	1	0.0	0.0	0.0	0.0	1	1.0574043574409573	0.6066932150754822	220.0	1	1.11	0.95				
	15	1	0.0	0.0	0.0	0.0	1	1.0142702155481593	-6.892472906552526	400.0	1	1.05	0.95				
	16	2	41.16000000000001	75.0	0.0	0.0	1	1.079087578881351	3.1863700420165775	220.0	1	1.11	0.95				
	17	2	57.75	112.5	0.0	0.0	1	1.0748622286072487	4.315350011700353	220.0	1	1.11	0.95				
	18	3	114.75	262.5	0.0	0.0	1	1.0109475323720207	7.148805159849276e-27	400.0	1	1.05	0.95				
	19	1	0.0	0.0	0.0	0.0	1	1.053075537149975	-11.102684035158694	220.0	1	1.11	0.95				
	20	1	0.0	0.0	0.0	0.0	1	1.0187404168456435	-0.7290998615251867	400.0	1	1.05	0.95				
	21	1	0.0	0.0	0.0	0.0	1	1.0460289852056712	-10.002545900136983	220.0	1	1.11	0.95				
	22	1	0.0	0.0	0.0	0.0	1	1.0679978618129855	-5.439344454284521	220.0	1	1.11	0.95				
	23	1	0.0	0.0	0.0	0.0	1	1.04076333388512	-5.019021547328076	220.0	2	1.11	0.95				
	24	1	0.0	0.0	0.0	0.0	1	1.0541782949690677	-1.6033909871496785	220.0	2	1.11	0.95				
	25	1	0.0	0.0	0.0	0.0	1	1.0521927049986821	-0.42775300253397225	220.0	2	1.11	0.95				
	26	1	0.0	0.0	0.0	0.0	1	1.0344815167719497	-6.460499021784586	220.0	2	1.11	0.95				
	27	1	0.0	0.0	0.0	0.0	1	1.0516227625421288	-0.9708738457204423	220.0	2	1.11	0.95				
	28	1	0.0	0.0	0.0	0.0	1	1.0516152064821012	-0.965322201135365	220.0	2	1.11	0.95				
	29	2	19.485000000000003	44.99999999999999	0.0	0.0	1	1.0474476673609765	-4.84382558929152	220.0	2	1.11	0.95				
	30	2	19.485000000000003	44.99999999999999	0.0	0.0	1	1.0473848416604716	-4.846109379811271	220.0	2	1.11	0.95				
	31	2	15.735000000000001	37.5	0.0	0.0	1	1.0046296697332695	-0.37290328555945373	400.0	2	1.05	0.95				
	32	1	0.0	0.0	0.0	0.0	1	1.0045013030326957	-0.40736088753389044	400.0	2	1.05	0.95				
	33	1	0.0	0.0	0.0	0.0	1	1.0476307855668696	-1.5545723043998214	220.0	2	1.11	0.95				
	34	1	0.0	0.0	0.0	0.0	1	1.0433466488170366	-0.3386656178104956	400.0	2	1.05	0.95				
	35	1	0.0	0.0	0.0	0.0	1	1.0433813460595005	-0.34411200641829376	400.0	2	1.05	0.95				
	36	1	0.0	0.0	0.0	0.0	1	0.9899946711790385	-2.9613882866615615	400.0	2	1.05	0.95				
	37	1	0.0	0.0	0.0	0.0	1	1.040336870587191	-4.794882961747321	220.0	2	1.11	0.95				
	38	1	0.0	0.0	0.0	0.0	1	1.0403290644191894	-4.792632073339591	220.0	2	1.11	0.95				
	39	1	0.0	0.0	0.0	0.0	1	1.0088089746778213	0.6587969822898563	400.0	2	1.05	0.95				
	40	1	0.0	0.0	0.0	0.0	1	1.00882303633711	0.6670292247252332	400.0	2	1.05	0.95				
	41	2	8.9925	22.499999999999996	0.0	0.0	1	1.0563632856660234	1.2062192303377375	220.0	2	1.11	0.95				
	42	2	8.9925	22.499999999999996	0.0	0.0	1	1.0563369135930325	1.1919529180668305	220.0	2	1.11	0.95				
	43	2	17.985	44.99999999999999	0.0	0.0	1	1.0197945069794234	2.7268295492775643	400.0	2	1.05	0.95				
	44	2	17.985	44.99999999999999	0.0	0.0	1	1.0198124722829496	2.7164884527493016	400.0	2	1.05	0.95				
	45	2	119.88000000000001	56.25	0.0	0.0	1	1.0392154047031072	-5.317168077938575	220.0	2	1.11	0.95				
	46	1	0.0	0.0	0.0	0.0	1	1.03924083131861	-5.31524498773273	220.0	2	1.11	0.95				
	47	1	0.0	0.0	0.0	0.0	1	1.0495542473646988	-1.3211932603822085	220.0	2	1.11	0.95				
	48	1	0.0	0.0	0.0	0.0	1	1.0429370614005944	-4.7959486338409265	220.0	2	1.11	0.95				
	49	1	0.0	0.0	0.0	0.0	1	1.0429400791104952	-4.799406651934326	220.0	2	1.11	0.95				
	50	1	0.0	0.0	0.0	0.0	1	1.0282197568489044	0.952618776173781	400.0	2	1.05	0.95				
	51	1	0.0	0.0	0.0	0.0	1	1.0283233101288736	0.9391566958686727	400.0	2	1.05	0.95				
	52	1	0.0	0.0	0.0	0.0	1	1.0455252687679903	-2.1918234195731605	220.0	2	1.11	0.95				
	53	1	0.0	0.0	0.0	0.0	1	1.0468556229300006	-2.135443703747404	220.0	2	1.11	0.95				
	54	1	0.0	0.0	0.0	0.0	1	1.052506726256898	-0.3752185600139655	220.0	2	1.11	0.95				
	55	1	0.0	0.0	0.0	0.0	1	1.0417390011190526	-3.6415112191845003	220.0	2	1.11	0.95				
	56	1	0.0	0.0	0.0	0.0	1	1.064497517339886	1.624984167663522	220.0	3	1.11	0.95				
	57	1	17.235	8.219999999999999	0.0	0.0	1	1.0754542697345628	2.673528320762415	220.0	3	1.11	0.95				
	58	1	16.485	4.3425	0.0	0.0	1	1.0756195862326854	2.6730448128729343	220.0	3	1.11	0.95				
	59	1	0.0	0.0	0.0	0.0	1	1.0936216119533055	10.256771121197696	220.0	3	1.11	0.95				
	60	1	0.0	0.0	0.0	0.0	1	1.0883949605796654	3.4806319462851767	220.0	3	1.11	0.95				
	61	1	0.0	0.0	0.0	0.0	1	1.1037469714016372	12.148937289551748	220.0	3	1.11	0.95				
	62	1	0.0	0.0	0.0	0.0	1	1.1037458792829313	12.151922034694579	220.0	3	1.11	0.95				
	63	2	28.0275	39.51749999999999	0.0	0.0	1	1.09392178084755	10.283856014039307	220.0	3	1.11	0.95				
	64	2	26.5275	41.49	0.0	0.0	1	1.0907914549987023	9.914553829424383	220.0	3	1.11	0.95				
	65	1	10.042500000000002	1.5150000000000001	0.0	0.0	1	1.089749688498054	8.152546420194449	220.0	3	1.11	0.95				
	66	1	0.0	0.0	0.0	0.0	1	1.0918194682938245	-3.3934195136769394	220.0	3	1.11	0.95				
	67	2	45.3	69.075	0.0	0.0	1	1.0408700389349177	-2.09555709951496	400.0	3	1.05	0.95				
	68	1	0.0	0.0	0.0	0.0	1	1.0903159555521826	-1.5674070206979482	220.0	3	1.11	0.95				
	69	1	0.0	0.0	0.0	0.0	1	1.0895262497649854	7.8289583160300955	220.0	3	1.11	0.95				
	70	1	0.0	0.0	0.0	0.0	1	1.0675301872776677	2.5398525944983277	220.0	3	1.11	0.95				
	71	1	0.0	0.0	0.0	0.0	1	1.0817285810524642	6.987566878366292	220.0	3	1.11	0.95				
	72	1	0.0	0.0	0.0	0.0	1	1.0817285810524642	6.987566878366292	220.0	3	1.11	0.95				
	73	1	0.0	0.0	0.0	0.0	1	1.069062194395803	3.02934512720188	220.0	3	1.11	0.95				
	74	1	0.0	0.0	0.0	0.0	1	1.0677797278278496	2.2138902613017453	220.0	3	1.11	0.95				
	75	1	0.0	0.0	0.0	0.0	1	1.0114401231730648	0.5758607033454615	400.0	3	1.05	0.95				
	76	1	0.0	0.0	0.0	0.0	1	1.0114007073864428	0.575177184740236	400.0	3	1.05	0.95				
	77	1	0.0	0.0	0.0	0.0	1	1.0818090831240492	6.393244899978206	220.0	3	1.11	0.95				
	78	1	0.0	0.0	0.0	0.0	1	1.0819130563812587	1.8345176645758858	220.0	3	1.11	0.95				
	79	1	0.0	0.0	0.0	0.0	1	1.0802337937936581	7.516099799165398	220.0	3	1.11	0.95				
	80	1	0.0	0.0	0.0	0.0	1	1.0759279192340323	2.7119139801998147	220.0	3	1.11	0.95				
	81	1	0.0	0.0	0.0	0.0	1	1.0759472780223067	2.7126511165669625	220.0	3	1.11	0.95				
	82	1	0.0	0.0	0.0	0.0	1	1.0994239162150283	11.206877711245125	220.0	3	1.11	0.95				
	83	2	11.9925	17.2275	0.0	0.0	1	1.0911816776257497	7.733992919902824	220.0	3	1.11	0.95				
	84	2	11.8425	16.7025	0.0	0.0	1	1.0910849583866464	7.7373710753643445	220.0	3	1.11	0.95				
	85	2	7.492500000000001	12.757500000000002	0.0	0.0	1	1.0837114691141538	6.1379580171721955	220.0	3	1.11	0.95				
	86	2	7.492500000000001	12.495000000000001	0.0	0.0	1	1.0836063893031473	6.139667001427928	220.0	3	1.11	0.95				
	87	1	8.317499999999999	12.164999999999997	0.0	0.0	1	1.0714493354764234	5.179992351483555	220.0	3	1.11	0.95				
	88	1	0.0	0.0	0.0	0.0	1	1.0714596526656917	5.182683932260485	220.0	3	1.11	0.95				
	89	1	0.0	0.0	0.0	0.0	1	1.0831945188479404	8.296395674463911	220.0	3	1.11	0.95				
	90	1	0.0	0.0	0.0	0.0	1	1.0873966438167073	6.50925171299541	220.0	3	1.11	0.95				
	91	1	0.0	0.0	0.0	0.0	1	1.090148627901983	8.798484446062588	220.0	3	1.11	0.95				
	92	1	0.0	0.0	0.0	0.0	1	1.004626008381869	1.1443732558969153	400.0	3	1.05	0.95				
	93	2	7.492500000000001	12.2925	0.0	0.0	1	1.0868285784362555	9.014700373980645	220.0	3	1.11	0.95				
	94	1	0.0	0.0	0.0	0.0	1	1.0868420859479062	9.012412480687358	220.0	3	1.11	0.95				
	95	2	5.1674999999999995	6.1125	0.0	0.0	1	1.0906897802967992	8.870234159762205	220.0	3	1.11	0.95				
	96	1	0.0	0.0	0.0	0.0	1	1.0906898080427565	8.864948918457321	220.0	3	1.11	0.95				
	97	2	6.5175	3.945	0.0	0.0	1	1.0970796488370234	6.727001016767527	220.0	3	1.11	0.95				
	98	1	0.0	0.0	0.0	0.0	1	1.0191355909169628	1.4816832485879687	400.0	3	1.05	0.95				
	99	1	0.0	0.0	0.0	0.0	1	1.0191994025895292	1.4868944879273098	400.0	3	1.05	0.95				
	100	1	0.0	0.0	0.0	0.0	1	1.0168537825901953	1.1508945228163447	400.0	3	1.05	0.95				
	101	1	0.0	0.0	0.0	0.0	1	1.0169125238851764	1.1476674691597053	400.0	3	1.05	0.95				
	102	1	0.0	0.0	0.0	0.0	1	1.0850702389573859	8.379188350249317	220.0	3	1.11	0.95				
	103	2	13.567499999999999	17.82	0.0	0.0	1	1.0853796136991811	5.425522963795569	220.0	3	1.11	0.95				
	104	2	25.259999999999998	34.582499999999996	0.0	0.0	1	1.0855689463500526	5.437036608264864	220.0	3	1.11	0.95				
	105	2	25.334999999999997	47.2125	0.0	0.0	1	0.9902373397263114	1.5704509398396433	400.0	3	1.05	0.95				
	106	1	0.0	0.0	0.0	0.0	1	0.9903943182272642	1.5660529562813748	400.0	3	1.05	0.95				
	107	1	0.0	0.0	0.0	0.0	1	1.0668479232978882	2.3316395394133873	220.0	3	1.11	0.95				
	108	1	0.0	0.0	0.0	0.0	1	1.068280126292575	2.5042371530054517	220.0	3	1.11	0.95				
	109	2	0.75	16.77	0.0	0.0	1	1.1065201105746112	12.867045909825261	220.0	3	1.11	0.95				
	110	2	0.75	16.634999999999998	0.0	0.0	1	1.106499817192403	12.870178099641315	220.0	3	1.11	0.95				
	111	2	19.8675	13.5	0.0	0.0	1	1.0792407292053556	-7.7022051770393345	220.0	4	1.11	0.95				
	112	1	0.0	0.0	0.0	0.0	1	1.079170246454566	-7.694363181687263	220.0	4	1.11	0.95				
	113	1	0.0	0.0	0.0	0.0	1	1.049384677997924	-18.357394640489744	220.0	4	1.11	0.95				
	114	1	0.0	0.0	0.0	0.0	1	1.055674499658958	-18.19938269984	220.0	4	1.11	0.95				
	115	1	0.0	0.0	0.0	0.0	1	0.9747543544021944	-13.977002827470569	400.0	4	1.05	0.95				
	116	1	0.0	0.0	0.0	0.0	1	0.9748004174052651	-13.962890408161435	400.0	4	1.05	0.95				
	117	1	0.0	0.0	0.0	0.0	1	1.0776455974987087	-17.012936903477154	220.0	4	1.11	0.95				
	118	1	0.0	0.0	0.0	0.0	1	1.030059577858481	-19.756667893908485	220.0	4	1.11	0.95				
	119	1	0.0	0.0	0.0	0.0	1	1.030059577858481	-19.756667893908485	220.0	4	1.11	0.95				
	120	1	0.0	0.0	0.0	0.0	1	1.0312574003752057	-20.804384872667573	220.0	4	1.11	0.95				
	121	1	0.0	0.0	0.0	0.0	1	1.0606628191123897	-17.74995799397467	220.0	4	1.11	0.95				
	122	1	0.0	0.0	0.0	0.0	1	1.0606628191123897	-17.74995799397467	220.0	4	1.11	0.95				
	123	2	4.125	5.250000000000001	0.0	0.0	1	1.0832583632027244	-10.578735560517698	220.0	4	1.11	0.95				
	124	2	6.592499999999999	12.75	0.0	0.0	1	1.0832445350623956	-10.57415603476275	220.0	4	1.11	0.95				
	125	2	26.775000000000006	13.724999999999998	0.0	0.0	1	1.0536201924447706	-17.377019160463384	220.0	4	1.11	0.95				
	126	1	18.96	11.924999999999999	0.0	0.0	1	1.0535643950463431	-17.364196691681535	220.0	4	1.11	0.95				
	127	2	19.2825	11.475	0.0	0.0	1	1.0112476990187131	-10.510971743783312	400.0	4	1.05	0.95				
	128	1	0.0	0.0	0.0	0.0	1	1.011228903500489	-10.523921028732858	400.0	4	1.05	0.95				
	129	1	0.0	0.0	0.0	0.0	1	1.0531584689896967	-19.763649094985297	220.0	4	1.11	0.95				
	130	1	0.0	0.0	0.0	0.0	1	1.0297615268533284	-21.095485055585517	220.0	4	1.11	0.95				
	131	2	51.5025	52.49999999999999	0.0	0.0	1	1.0652301987222141	-16.8618912743243	220.0	4	1.11	0.95				
	132	2	24.75	33.75	0.0	0.0	1	1.065296078778669	-16.86158657443386	220.0	4	1.11	0.95				
	133	1	0.0	0.0	0.0	0.0	1	0.9633870804514195	-15.708467594594113	400.0	4	1.05	0.95				
	134	1	0.0	0.0	0.0	0.0	1	0.9633560668387171	-15.711747266327412	400.0	4	1.05	0.95				
	135	1	0.0	0.0	0.0	0.0	1	1.030128436564151	-19.775230864073592	220.0	4	1.11	0.95				
	136	1	0.0	0.0	0.0	0.0	1	1.030128436564151	-19.775230864073592	220.0	4	1.11	0.95				
	137	1	0.0	0.0	0.0	0.0	1	0.997540190842814	-10.340792351063566	400.0	4	1.05	0.95				
	138	1	0.0	0.0	0.0	0.0	1	0.997540190842814	-10.340792351063566	400.0	4	1.05	0.95				
	139	2	24.9	16.950000000000003	0.0	0.0	1	1.0832488036490011	-10.80766003139217	220.0	4	1.11	0.95				
	140	2	21.9225	14.700000000000003	0.0	0.0	1	1.083277819233797	-10.806410244914238	220.0	4	1.11	0.95				
	141	1	0.0	0.0	0.0	0.0	1	1.0659093305139353	-19.254045480474172	220.0	4	1.11	0.95				
	142	1	0.0	0.0	0.0	0.0	1	1.0278759157382096	-19.91571111636443	220.0	4	1.11	0.95				
	143	1	0.0	0.0	0.0	0.0	1	1.0775482077566698	-17.844065307499196	220.0	4	1.11	0.95				
	144	1	0.0	0.0	0.0	0.0	1	1.0774837960779893	-17.84532985727731	220.0	4	1.11	0.95				
	145	1	0.0	0.0	0.0	0.0	1	0.9734097323592783	-16.180684997229395	400.0	4	1.05	0.95				
	146	1	0.0	0.0	0.0	0.0	1	0.9734097323592783	-16.180684997229395	400.0	4	1.05	0.95				
	147	1	0.0	0.0	0.0	0.0	1	1.0439482859006792	-19.73493012375747	220.0	4	1.11	0.95				
	148	1	0.0	0.0	0.0	0.0	1	1.0439922043162824	-19.73187541916909	220.0	4	1.11	0.95				
	149	1	0.0	0.0	0.0	0.0	1	1.0753300419828065	-18.31199667312189	220.0	4	1.11	0.95				
	150	1	0.0	0.0	0.0	0.0	1	1.0524837419225634	-17.650138453529767	220.0	4	1.11	0.95				
	151	1	0.0	0.0	0.0	0.0	1	1.052505376290458	-17.655939835978675	220.0	4	1.11	0.95				
	152	1	0.0	0.0	0.0	0.0	1	1.0533613133427129	-14.59317612123239	220.0	4	1.11	0.95				
	153	1	0.0	0.0	0.0	0.0	1	1.0533613133427129	-14.59317612123239	220.0	4	1.11	0.95				
	154	1	0.0	0.0	0.0	0.0	1	1.0310661135062322	-20.78932157881237	220.0	4	1.11	0.95				
	155	1	0.0	0.0	0.0	0.0	1	1.0696688453672323	-13.686192633932086	220.0	5	1.11	0.95				
	156	1	0.0	0.0	0.0	0.0	1	1.110000010824521	-13.078652188673948	220.0	5	1.11	0.95				
	157	1	0.0	0.0	0.0	0.0	1	1.0173631372473642	-11.343519422353875	400.0	5	1.05	0.95				
	158	1	0.0	0.0	0.0	0.0	1	1.0173539119444535	-11.33911940543526	400.0	5	1.05	0.95				
	159	1	0.0	0.0	0.0	0.0	1	1.0244845617583263	-9.878261152830264	400.0	5	1.05	0.95				
	160	1	0.0	0.0	0.0	0.0	1	1.0245203516820953	-9.879193677792992	400.0	5	1.05	0.95				
	161	1	0.0	0.0	0.0	0.0	1	1.0693361760087552	-14.351378873497396	220.0	5	1.11	0.95				
	162	1	0.0	0.0	0.0	0.0	1	1.0693394905203957	-14.351613783333917	220.0	5	1.11	0.95				
	163	1	0.0	0.0	0.0	0.0	1	1.100988669029491	-12.13738231398897	220.0	5	1.11	0.95				
	164	1	0.0	0.0	0.0	0.0	1	1.100979184831731	-12.142654380438518	220.0	5	1.11	0.95				
	165	1	0.0	0.0	0.0	0.0	1	1.0077529357791652	-11.026836938047552	400.0	5	1.05	0.95				
	166	1	0.0	0.0	0.0	0.0	1	1.0791634911053212	-13.233801307621205	220.0	5	1.11	0.95				
	167	1	0.0	0.0	0.0	0.0	1	1.0791966973314573	-13.231240464722596	220.0	5	1.11	0.95				
	168	1	0.0	0.0	0.0	0.0	1	1.029214331731772	-11.513867253247303	400.0	5	1.05	0.95				
	169	1	0.0	0.0	0.0	0.0	1	1.0292109314938642	-11.520297170734901	400.0	5	1.05	0.95				
	170	1	0.0	0.0	0.0	0.0	1	1.0555839014623496	-13.55422887881349	220.0	5	1.11	0.95				
	171	1	0.0	0.0	0.0	0.0	1	1.0555986649915965	-13.551772014625188	220.0	5	1.11	0.95				
	172	1	0.0	0.0	0.0	0.0	1	1.078537018780508	-13.830730547233618	220.0	5	1.11	0.95				
	173	1	0.0	0.0	0.0	0.0	1	1.0785030329317957	-13.832316744575285	220.0	5	1.11	0.95				
	174	1	0.0	0.0	0.0	0.0	1	1.0686190908820867	-13.644247273008602	220.0	5	1.11	0.95				
	175	1	0.0	0.0	0.0	0.0	1	1.068622933323031	-13.646481582555337	220.0	5	1.11	0.95				
	176	2	0.0	30.000000000000004	0.0	0.0	1	1.0194780121822906	-8.011264492279633	400.0	5	1.05	0.95				
	177	2	0.0	30.000000000000004	0.0	0.0	1	1.0195364065661034	-8.01197791965468	400.0	5	1.05	0.95				
	178	1	0.0	0.0	0.0	0.0	1	1.0880953423466972	-14.991588146932928	220.0	5	1.11	0.95				
	179	1	0.0	0.0	0.0	0.0	1	1.0881157196499063	-14.986764191274675	220.0	5	1.11	0.95				
	180	2	254.88750000000002	37.2	0.0	0.0	2	0.9713427929495843	-0.5792970079590972	400.0	6	1.05	0.95				
	181	2	0.0	0.0	0.0	0.0	3	1.059591293192045	3.937329757805375	220.0	6	1.11	0.95				
	182	2	0.0	0.0	0.0	0.0	5	0.9636032877412084	-15.38791318054038	400.0	6	1.05	0.95				
	183	1	112.5	0.0	0.0	0.0	3	1.0500000104902651	-1.049068960878836	400.0	6	1.05	0.95				
	184	2	238.00499999999997	37.724999999999994	0.0	0.0	2	1.0884736559496508	5.842541036322953	220.0	6	1.11	0.95				
	185	2	271.8225	27.525000000000006	0.0	0.0	2	0.9710782415953053	-1.2077208450956485	400.0	6	1.05	0.95				
	186	2	24.9975	0.75	0.0	0.0	5	1.0534729486799324	-17.47369983660784	220.0	6	1.11	0.95				
	187	1	5.34	1.125	0.0	0.0	1	1.0568579410453844	-13.008495522777357	110.0	1	1.12	0.95				
	188	1	5.7225	0.75	0.0	0.0	1	1.0425035444743915	-17.403525850950928	110.0	1	1.12	0.95				
	189	1	7.3275	6.525	0.0	0.0	1	1.0133398594731104	-15.527076322421884	110.0	1	1.12	0.95				
	190	1	4.590000000000001	1.125	0.0	0.0	1	1.096145389866462	-0.15156453803919176	110.0	1	1.12	0.95				
	191	1	4.590000000000001	1.2	0.0	0.0	1	1.082212756501745	-0.615998053313839	110.0	1	1.12	0.95				
	192	2	22.919999999999998	9.0	0.0	0.0	1	1.0957729895497847	-9.739833617952423	110.0	1	1.12	0.95				
	193	1	11.459999999999999	2.25	0.0	0.0	1	1.0958643214582615	-9.745448701095798	110.0	1	1.12	0.95				
	194	1	0.0	0.0	0.0	0.0	1	1.0952473225925914	-9.944832543236531	110.0	1	1.12	0.95				
	195	1	6.105	1.5	0.0	0.0	1	1.0703850880857588	-13.01377520719228	110.0	1	1.12	0.95				
	196	2	5.19	1.125	0.0	0.0	1	1.0447015523488643	-21.649835554664445	110.0	1	1.12	0.95				
	197	1	5.19	1.125	0.0	0.0	1	1.0805414460571587	-7.896022692157097	110.0	1	1.12	0.95				
	198	2	9.24	1.2750000000000001	0.0	0.0	1	1.066930791077752	-13.588191620403396	110.0	1	1.12	0.95				
	199	1	1.0725	0.375	0.0	0.0	1	1.1057079459267218	-1.9742281301865896	110.0	1	1.12	0.95				
	200	1	0.8099999999999999	0.375	0.0	0.0	1	1.1044722433509249	-13.190099566215581	110.0	1	1.12	0.95				
...
];

%% generator data
%    bus    Pg    Qg    Qmax    Qmin    Vg    mBase    status    Pmax    Pmin    Pc1    Pc2    Qc1min    Qc1max    Qc2min    Qc2max    ramp_agc    ramp_10    ramp_30    ramp_q    apf
mpc.gen = [
	10	400.00000396693827	24.470126355579886	120.0	0.0	1.0	168.0	1	400.0	0.0	0.0	0.0	0.0	0.0	0.0	0.0	0.0	0.0	0.0	0.0	0.0				
	16	720.0000071944022	123.47119295409516	440.00000000000006	-40.0	1.0	823.0	1	720.0	0.0	0.0	0.0	0.0	0.0	0.0	0.0	0.0	0.0	0.0	0.0	0.0				
	17	1080.000010783787	166.25731292578556	660.0	-60.0	1.0	1234.0	1	1080.0	0.0	0.0	0.0	0.0	0.0	0.0	0.0	0.0	0.0	0.0	0.0	0.0				
	18	-8.185680576698503e-7	-140.00000009177575	1540.0	-140.0	1.0	2879.0	1	2520.0	0.0	0.0	0.0	0.0	0.0	0.0	0.0	0.0	0.0	0.0	0.0	0.0				
	29	-9.85403390293776e-7	-3.3054642249830344e-7	240.0	0.0	1.0	511.0	1	400.0	0.0	0.0	0.0	0.0	0.0	0.0	0.0	0.0	0.0	0.0	0.0	0.0				
	30	-9.883417151252026e-7	-3.3139835560288055e-7	240.0	0.0	1.0	511.0	1	800.0	0.0	0.0	0.0	0.0	0.0	0.0	0.0	0.0	0.0	0.0	0.0	0.0				
	31	1000.0000099924561	-7.100649419227734e-7	350.0	0.0	1.0	420.0	1	1000.0	0.0	0.0	0.0	0.0	0.0	0.0	0.0	0.0	0.0	0.0	0.0	0.0				
	41	200.0000019816856	-8.711432204922296e-7	120.0	0.0	1.0	241.0	1	200.0	0.0	0.0	0.0	0.0	0.0	0.0	0.0	0.0	0.0	0.0	0.0	0.0				
	42	-9.807434809785214e-7	-8.709621819223275e-7	120.0	0.0	1.0	241.0	1	409.99999999999994	0.0	0.0	0.0	0.0	0.0	0.0	0.0	0.0	0.0	0.0	0.0	0.0				
	43	410.0000040915153	-9.227849285727123e-7	240.0	0.0	1.0	482.0	1	409.99999999999994	0.0	0.0	0.0	0.0	0.0	0.0	0.0	0.0	0.0	0.0	0.0	0.0				
	44	410.0000040892463	-9.228728559561705e-7	240.0	0.0	1.0	482.0	1	409.99999999999994	0.0	0.0	0.0	0.0	0.0	0.0	0.0	0.0	0.0	0.0	0.0	0.0				
	45	42.200000996697035	-3.3328872121336565e-7	21.0	0.0	1.0	49.0	1	42.2	0.0	0.0	0.0	0.0	0.0	0.0	0.0	0.0	0.0	0.0	0.0	0.0				
	63	650.0000064915223	70.43283740334118	302.0	0.0	1.0	473.0	1	650.0	0.0	0.0	0.0	0.0	0.0	0.0	0.0	0.0	0.0	0.0	0.0	0.0				
	64	450.00000448880417	22.586673321781465	311.0	2.0	1.0	475.0	1	450.0	0.0	0.0	0.0	0.0	0.0	0.0	0.0	0.0	0.0	0.0	0.0	0.0				
	67	750.0000074910585	337.29073608032337	449.0	0.0	1.0	864.0	1	750.0	0.0	0.0	0.0	0.0	0.0	0.0	0.0	0.0	0.0	0.0	0.0	0.0				
	83	225.0000022432903	133.21323055009123	190.0	-89.0	1.0	239.0	1	225.0	0.0	0.0	0.0	0.0	0.0	0.0	0.0	0.0	0.0	0.0	0.0	0.0				
	84	225.00000223842864	-88.88395326188481	190.0	-89.0	1.0	251.0	1	225.0	0.0	0.0	0.0	0.0	0.0	0.0	0.0	0.0	0.0	0.0	0.0	0.0				
	85	120.00000118074911	124.99962601156945	125.0	-50.0	1.0	133.0	1	120.0	0.0	0.0	0.0	0.0	0.0	0.0	0.0	0.0	0.0	0.0	0.0	0.0				
	86	120.00000083550705	-44.410001493963755	125.0	-50.0	1.0	133.0	1	120.0	0.0	0.0	0.0	0.0	0.0	0.0	0.0	0.0	0.0	0.0	0.0	0.0				
	93	120.00000118207362	5.0000089083740935	90.0	5.0	1.0	123.0	1	120.0	0.0	0.0	0.0	0.0	0.0	0.0	0.0	0.0	0.0	0.0	0.0	0.0				
	95	110.00000106798089	27.00000006888672	68.0	27.0	1.0	105.0	1	110.00000000000001	0.0	0.0	0.0	0.0	0.0	0.0	0.0	0.0	0.0	0.0	0.0	0.0				
	97	87.60000099635191	26.999999894179734	68.0	27.0	1.0	105.0	1	87.6	0.0	0.0	0.0	0.0	0.0	0.0	0.0	0.0	0.0	0.0	0.0	0.0				
	103	-9.845642773077933e-7	-81.99631357479615	177.0	-82.0	1.0	239.0	1	400.0	0.0	0.0	0.0	0.0	0.0	0.0	0.0	0.0	0.0	0.0	0.0	0.0				
	104	225.00000222439414	214.74362161949455	379.0	-177.0	1.0	490.0	1	225.0	0.0	0.0	0.0	0.0	0.0	0.0	0.0	0.0	0.0	0.0	0.0	0.0				
	105	430.00000428047895	-165.00000060925572	353.0	-165.0	1.0	502.0	1	430.0	0.0	0.0	0.0	0.0	0.0	0.0	0.0	0.0	0.0	0.0	0.0	0.0				
	109	250.00000249637372	33.855832297525836	65.0	0.0	1.0	277.0	1	250.0	0.0	0.0	0.0	0.0	0.0	0.0	0.0	0.0	0.0	0.0	0.0	0.0				
	110	250.0000024963737	33.38338058470974	65.0	0.0	1.0	280.0	1	250.0	0.0	0.0	0.0	0.0	0.0	0.0	0.0	0.0	0.0	0.0	0.0	0.0				
	111	-9.233231284515442e-7	22.646610343908698	270.0	0.0	1.0	401.0	1	360.0	0.0	0.0	0.0	0.0	0.0	0.0	0.0	0.0	0.0	0.0	0.0	0.0				
	123	-9.82920834764342e-7	3.0902394166144767	40.0	0.0	1.0	98.0	1	110.00000000000001	0.0	0.0	0.0	0.0	0.0	0.0	0.0	0.0	0.0	0.0	0.0	0.0				
	124	125.00000124116714	0.000371052801093011	90.0	0.0	1.0	132.0	1	125.0	0.0	0.0	0.0	0.0	0.0	0.0	0.0	0.0	0.0	0.0	0.0	0.0				
	125	24.009807067026905	116.74789716012405	360.0	0.0	1.0	654.0	1	860.0	0.0	0.0	0.0	0.0	0.0	0.0	0.0	0.0	0.0	0.0	0.0	0.0				
	127	690.0000068901805	-8.19676374159498e-7	360.0	0.0	1.0	540.0	1	690.0	0.0	0.0	0.0	0.0	0.0	0.0	0.0	0.0	0.0	0.0	0.0	0.0				
	131	-9.371863507131464e-7	0.000624298068146459	360.0	0.0	1.0	696.0	1	1060.0	0.0	0.0	0.0	0.0	0.0	0.0	0.0	0.0	0.0	0.0	0.0	0.0				
	132	-9.761741397449201e-7	119.84360655578368	480.0	0.0	1.0	732.0	1	600.0	0.0	0.0	0.0	0.0	0.0	0.0	0.0	0.0	0.0	0.0	0.0	0.0				
	139	-9.703359839111525e-7	0.0008141899156473109	360.0	0.0	1.0	714.0	1	600.0	0.0	0.0	0.0	0.0	0.0	0.0	0.0	0.0	0.0	0.0	0.0	0.0				
	140	200.00000198817972	18.39424025125602	120.0	0.0	1.0	240.0	1	200.0	0.0	0.0	0.0	0.0	0.0	0.0	0.0	0.0	0.0	0.0	0.0	0.0				
	176	600.0000059966751	-119.99978934479023	220.00000000000003	-120.0	1.0	430.0	1	600.0	0.0	0.0	0.0	0.0	0.0	0.0	0.0	0.0	0.0	0.0	0.0	0.0				
	177	200.00000199667528	20.89842517594414	220.00000000000003	-120.0	1.0	430.0	1	200.0	0.0	0.0	0.0	0.0	0.0	0.0	0.0	0.0	0.0	0.0	0.0	0.0				
	180	0.0	-77.2083536940525	99999.0	-99999.0	1.0	7485.0	1	0.0	0.0	0.0	0.0	0.0	0.0	0.0	0.0	0.0	0.0	0.0	0.0	0.0				
	181	175.00000174655298	-2.9282089001500715	99999.0	-99999.0	1.0	210.0	1	175.0	0.0	0.0	0.0	0.0	0.0	0.0	0.0	0.0	0.0	0.0	0.0	0.0				
	182	307.5900030728358	-23.341574239544308	99999.0	-99999.0	1.0	13465.0	1	307.59	0.0	0.0	0.0	0.0	0.0	0.0	0.0	0.0	0.0	0.0	0.0	0.0				
	184	0.0	48.23163891063889	99999.0	-99999.0	1.0	8353.0	1	0.0	0.0	0.0	0.0	0.0	0.0	0.0	0.0	0.0	0.0	0.0	0.0	0.0				
	185	0.0	-65.54536045380051	99999.0	-99999.0	1.0	14254.0	1	0.0	0.0	0.0	0.0	0.0	0.0	0.0	0.0	0.0	0.0	0.0	0.0	0.0				
	186	0.0	-3.425888329273058	99999.0	-99999.0	1.0	7401.0	1	0.0	0.0	0.0	0.0	0.0	0.0	0.0	0.0	0.0	0.0	0.0	0.0	0.0				
	192	95.00000099668551	6.397223582525564e-6	50.0	0.0	1.0	114.0	1	95.0	0.0	0.0	0.0	0.0	0.0	0.0	0.0	0.0	0.0	0.0	0.0	0.0				
	196	0.9000009970404321	1.0000008514000502	1.0	0.0	1.0	1.0	1	0.9000000000000001	0.0	0.0	0.0	0.0	0.0	0.0	0.0	0.0	0.0	0.0	0.0	0.0				
	198	0.8000009968180942	0.9999977357014092	1.0	0.0	1.0	1.0	1	0.8	0.0	0.0	0.0	0.0	0.0	0.0	0.0	0.0	0.0	0.0	0.0	0.0				
	205	15.000000996695023	9.999990743431669	10.0	0.0	1.0	18.0	1	15.0	0.0	0.0	0.0	0.0	0.0	0.0	0.0	0.0	0.0	0.0	0.0	0.0				
	213	11.000000996858498	7.999998671392755	8.0	0.0	1.0	13.0	1	11.0	0.0	0.0	0.0	0.0	0.0	0.0	0.0	0.0	0.0	0.0	0.0	0.0				
	264	2.5000009969027905	4.461671238112921e-6	2.0	0.0	1.0	3.0	1	2.5	0.0	0.0	0.0	0.0	0.0	0.0	0.0	0.0	0.0	0.0	0.0	0.0				
	269	6.000000996733253	2.0385577772786502e-5	5.0	0.0	1.0	7.0	1	6.0	0.0	0.0	0.0	0.0	0.0	0.0	0.0	0.0	0.0	0.0	0.0	0.0				
	277	70.00000099667034	37.31267845828414	42.0	0.0	1.0	84.0	1	70.0	0.0	0.0	0.0	0.0	0.0	0.0	0.0	0.0	0.0	0.0	0.0	0.0				
	278	60.00000099669284	8.437125649176197	40.0	0.0	1.0	72.0	1	60.0	0.0	0.0	0.0	0.0	0.0	0.0	0.0	0.0	0.0	0.0	0.0	0.0				
	279	60.000000996678295	19.88954175298325	40.0	0.0	1.0	72.0	1	60.0	0.0	0.0	0.0	0.0	0.0	0.0	0.0	0.0	0.0	0.0	0.0	0.0				
	281	120.00000119664665	36.20550366261698	90.0	0.0	1.0	144.0	1	120.0	0.0	0.0	0.0	0.0	0.0	0.0	0.0	0.0	0.0	0.0	0.0	0.0				
	282	40.00000099665474	24.56273831145489	40.0	0.0	1.0	48.0	1	40.0	0.0	0.0	0.0	0.0	0.0	0.0	0.0	0.0	0.0	0.0	0.0	0.0				
	289	2.500000996656059	2.999996153765574	3.0	0.0	1.0	3.0	1	2.5	0.0	0.0	0.0	0.0	0.0	0.0	0.0	0.0	0.0	0.0	0.0	0.0				
	294	2.000000996788671	0.999997893782503	1.0	0.0	1.0	2.0	1	2.0	0.0	0.0	0.0	0.0	0.0	0.0	0.0	0.0	0.0	0.0	0.0	0.0				
	314	1.5000009968258063	0.9999970704781307	1.0	0.0	1.0	2.0	1	1.5	0.0	0.0	0.0	0.0	0.0	0.0	0.0	0.0	0.0	0.0	0.0	0.0				
	328	44.000000996724744	-4.0633713273407766e-7	21.0	0.0	1.0	53.0	1	44.0	0.0	0.0	0.0	0.0	0.0	0.0	0.0	0.0	0.0	0.0	0.0	0.0				
	329	44.000000996811615	14.858054127840076	21.0	0.0	1.0	53.0	1	44.0	0.0	0.0	0.0	0.0	0.0	0.0	0.0	0.0	0.0	0.0	0.0	0.0				
	330	44.00000099669701	-7.330971433596305e-7	21.0	0.0	1.0	53.0	1	44.0	0.0	0.0	0.0	0.0	0.0	0.0	0.0	0.0	0.0	0.0	0.0	0.0				
	331	43.00000099680624	6.236756353881148	21.0	0.0	1.0	52.0	1	43.0	0.0	0.0	0.0	0.0	0.0	0.0	0.0	0.0	0.0	0.0	0.0	0.0				
	334	1.500000996830098	-4.1428442138669365e-7	1.0	0.0	1.0	2.0	1	1.5	0.0	0.0	0.0	0.0	0.0	0.0	0.0	0.0	0.0	0.0	0.0	0.0				
	346	-8.808712703635043e-7	33.538028443263386	120.0	0.0	1.0	180.0	1	200.0	0.0	0.0	0.0	0.0	0.0	0.0	0.0	0.0	0.0	0.0	0.0	0.0				
	347	10.000000996728167	3.861079850500821e-6	15.0	0.0	1.0	12.0	1	10.0	0.0	0.0	0.0	0.0	0.0	0.0	0.0	0.0	0.0	0.0	0.0	0.0				
	359	1.5000009968208727	2.96691865423579e-6	1.0	0.0	1.0	2.0	1	1.5	0.0	0.0	0.0	0.0	0.0	0.0	0.0	0.0	0.0	0.0	0.0	0.0				
	365	5.100000996757349	2.9999992854586264	3.0	0.0	1.0	6.0	1	5.1	0.0	0.0	0.0	0.0	0.0	0.0	0.0	0.0	0.0	0.0	0.0	0.0				
	382	8.000000996807579	4.999999302980754	5.0	0.0	1.0	10.0	1	8.0	0.0	0.0	0.0	0.0	0.0	0.0	0.0	0.0	0.0	0.0	0.0	0.0				
	383	8.000000996803747	5.000000180887057	5.0	0.0	1.0	10.0	1	8.0	0.0	0.0	0.0	0.0	0.0	0.0	0.0	0.0	0.0	0.0	0.0	0.0				
	385	6.000000996834563	3.999999984516789	4.0	0.0	1.0	7.0	1	6.0	0.0	0.0	0.0	0.0	0.0	0.0	0.0	0.0	0.0	0.0	0.0	0.0				
	390	4.500000996630202	2.9999998345376406	3.0	0.0	1.0	5.0	1	4.5	0.0	0.0	0.0	0.0	0.0	0.0	0.0	0.0	0.0	0.0	0.0	0.0				
	395	10.000000996777471	-6.298587865373544e-7	8.0	0.0	1.0	12.0	1	10.0	0.0	0.0	0.0	0.0	0.0	0.0	0.0	0.0	0.0	0.0	0.0	0.0				
	404	3.0000009966574988	3.000000318575498	3.0	0.0	1.0	4.0	1	3.0	0.0	0.0	0.0	0.0	0.0	0.0	0.0	0.0	0.0	0.0	0.0	0.0				
	426	3.20000099687305	2.0000001686817925	2.0	0.0	1.0	4.0	1	3.2	0.0	0.0	0.0	0.0	0.0	0.0	0.0	0.0	0.0	0.0	0.0	0.0				
	444	1.0000009966871188	0.00037278439858824057	1.0	0.0	1.0	1.0	1	1.0	0.0	0.0	0.0	0.0	0.0	0.0	0.0	0.0	0.0	0.0	0.0	0.0				
	451	4.500000996766264	2.9999996304504033	3.0	0.0	1.0	5.0	1	4.5	0.0	0.0	0.0	0.0	0.0	0.0	0.0	0.0	0.0	0.0	0.0	0.0				
	482	1.0000009967033616	0.9999998081297556	1.0	0.0	1.0	1.0	1	1.0	0.0	0.0	0.0	0.0	0.0	0.0	0.0	0.0	0.0	0.0	0.0	0.0				
	492	2.0000009967919654	1.9146641097902695e-7	1.0	0.0	1.0	2.0	1	2.0	0.0	0.0	0.0	0.0	0.0	0.0	0.0	0.0	0.0	0.0	0.0	0.0				
	493	234.00000233669695	35.29403311806625	130.0	0.0	1.0	281.0	1	234.0	0.0	0.0	0.0	0.0	0.0	0.0	0.0	0.0	0.0	0.0	0.0	0.0				
	494	234.00000233673617	65.78423620206958	130.0	0.0	1.0	281.0	1	234.0	0.0	0.0	0.0	0.0	0.0	0.0	0.0	0.0	0.0	0.0	0.0	0.0				
	514	115.00000114680209	50.26152384887159	90.0	0.0	1.0	138.0	1	114.99999999999999	0.0	0.0	0.0	0.0	0.0	0.0	0.0	0.0	0.0	0.0	0.0	0.0				
	515	115.00000114680644	84.88756567453314	90.0	0.0	1.0	138.0	1	114.99999999999999	0.0	0.0	0.0	0.0	0.0	0.0	0.0	0.0	0.0	0.0	0.0	0.0				
	525	6.000000996743739	3.9999998141413418	4.0	0.0	1.0	7.0	1	6.0	0.0	0.0	0.0	0.0	0.0	0.0	0.0	0.0	0.0	0.0	0.0	0.0				
	536	6.000000996865429	5.999999577377156	6.0	0.0	1.0	7.0	1	6.0	0.0	0.0	0.0	0.0	0.0	0.0	0.0	0.0	0.0	0.0	0.0	0.0				
	537	3.500000996906163	1.1866984928512074	3.0	0.0	1.0	4.0	1	3.5000000000000004	0.0	0.0	0.0	0.0	0.0	0.0	0.0	0.0	0.0	0.0	0.0	0.0				
	556	2.7000009967789564	-6.557609231818197e-7	1.0	0.0	1.0	3.0	1	2.7	0.0	0.0	0.0	0.0	0.0	0.0	0.0	0.0	0.0	0.0	0.0	0.0				
	580	1.6000009967069235	-6.140174379840189e-7	1.0	0.0	1.0	2.0	1	1.6	0.0	0.0	0.0	0.0	0.0	0.0	0.0	0.0	0.0	0.0	0.0	0.0				
	584	2.7000009967559	-1.8258993200328772e-7	2.0	0.0	1.0	3.0	1	2.7	0.0	0.0	0.0	0.0	0.0	0.0	0.0	0.0	0.0	0.0	0.0	0.0				
	585	4.000000996754098	-1.9235751555518438e-7	2.0	0.0	1.0	5.0	1	4.0	0.0	0.0	0.0	0.0	0.0	0.0	0.0	0.0	0.0	0.0	0.0	0.0				
	607	0.8000009966570452	0.0	0.0	0.0	1.0	1.0	1	0.8	0.0	0.0	0.0	0.0	0.0	0.0	0.0	0.0	0.0	0.0	0.0	0.0				
	612	-9.698221847772283e-7	80.17937678654273	120.0	0.0	1.0	256.0	1	200.0	0.0	0.0	0.0	0.0	0.0	0.0	0.0	0.0	0.0	0.0	0.0	0.0				
	613	200.00000121119263	0.0011814726328889785	120.0	0.0	1.0	256.0	1	200.0	0.0	0.0	0.0	0.0	0.0	0.0	0.0	0.0	0.0	0.0	0.0	0.0				
	615	1.4000009966749676	-5.63730589535357e-7	1.0	0.0	1.0	2.0	1	1.4	0.0	0.0	0.0	0.0	0.0	0.0	0.0	0.0	0.0	0.0	0.0	0.0				
	623	7.6000009967582685	-4.5838655857441285e-8	5.0	0.0	1.0	9.0	1	7.6	0.0	0.0	0.0	0.0	0.0	0.0	0.0	0.0	0.0	0.0	0.0	0.0				
	639	9.600000996711083	-5.913630583532591e-7	4.0	0.0	1.0	12.0	1	9.6	0.0	0.0	0.0	0.0	0.0	0.0	0.0	0.0	0.0	0.0	0.0	0.0				
	651	4.7000009967356	-5.525844319166432e-7	2.0	0.0	1.0	6.0	1	4.7	0.0	0.0	0.0	0.0	0.0	0.0	0.0	0.0	0.0	0.0	0.0	0.0				
	654	1.4000009966485227	-8.553200445235382e-7	1.0	0.0	1.0	2.0	1	1.4	0.0	0.0	0.0	0.0	0.0	0.0	0.0	0.0	0.0	0.0	0.0	0.0				
	664	6.200000996646579	-7.540099558562258e-7	6.0	0.0	1.0	7.0	1	6.2	0.0	0.0	0.0	0.0	0.0	0.0	0.0	0.0	0.0	0.0	0.0	0.0				
	670	2.700000996661895	-9.227757115637256e-7	2.0	0.0	1.0	3.0	1	2.7	0.0	0.0	0.0	0.0	0.0	0.0	0.0	0.0	0.0	0.0	0.0	0.0				
	674	1.0000009967806558	0.0	0.0	0.0	1.0	1.0	1	1.0	0.0	0.0	0.0	0.0	0.0	0.0	0.0	0.0	0.0	0.0	0.0	0.0				
	688	-9.726739715399402e-7	-8.037710353088509e-7	120.0	0.0	1.0	242.0	1	202.0	0.0	0.0	0.0	0.0	0.0	0.0	0.0	0.0	0.0	0.0	0.0	0.0				
	692	1.4000009967263078	5.4507268708876e-7	1.0	0.0	1.0	2.0	1	1.4	0.0	0.0	0.0	0.0	0.0	0.0	0.0	0.0	0.0	0.0	0.0	0.0				
	699	3.800000996677725	-9.227783408478906e-7	2.0	0.0	1.0	5.0	1	3.8	0.0	0.0	0.0	0.0	0.0	0.0	0.0	0.0	0.0	0.0	0.0	0.0				
	712	1.200000996760871	-1.8963412262258685e-7	1.0	0.0	1.0	1.0	1	1.2	0.0	0.0	0.0	0.0	0.0	0.0	0.0	0.0	0.0	0.0	0.0	0.0				
	730	6.900000996621536	-9.285295894068133e-7	3.0	0.0	1.0	8.0	1	6.9	0.0	0.0	0.0	0.0	0.0	0.0	0.0	0.0	0.0	0.0	0.0	0.0				
	732	1.1000009967436875	-8.843516756084524e-7	1.0	0.0	1.0	1.0	1	1.1	0.0	0.0	0.0	0.0	0.0	0.0	0.0	0.0	0.0	0.0	0.0	0.0				
	735	4.100000996721288	-5.603225613794346e-7	2.0	0.0	1.0	5.0	1	4.1	0.0	0.0	0.0	0.0	0.0	0.0	0.0	0.0	0.0	0.0	0.0	0.0				
	740	4.000000996534533	-9.425080383241014e-7	1.0	0.0	1.0	5.0	1	4.0	0.0	0.0	0.0	0.0	0.0	0.0	0.0	0.0	0.0	0.0	0.0	0.0				
	744	134.00000133646017	-9.328369343299452e-7	60.0	0.0	1.0	161.0	1	134.0	0.0	0.0	0.0	0.0	0.0	0.0	0.0	0.0	0.0	0.0	0.0	0.0				
	754	80.00000098289483	-8.28879595486485e-7	30.0	0.0	1.0	54.0	1	80.0	0.0	0.0	0.0	0.0	0.0	0.0	0.0	0.0	0.0	0.0	0.0	0.0				
	755	-9.781180599564812e-7	-8.002349016329409e-7	80.0	0.0	1.0	110.0	1	250.0	0.0	0.0	0.0	0.0	0.0	0.0	0.0	0.0	0.0	0.0	0.0	0.0				
	760	3.1000009967318003	-5.720515874679636e-7	2.0	0.0	1.0	4.0	1	3.1	0.0	0.0	0.0	0.0	0.0	0.0	0.0	0.0	0.0	0.0	0.0	0.0				
	766	2.1000009967439746	-3.5939996387634645e-7	1.0	0.0	1.0	3.0	1	2.1	0.0	0.0	0.0	0.0	0.0	0.0	0.0	0.0	0.0	0.0	0.0	0.0				
	784	0.7000009967423189	0.0	0.0	0.0	1.0	1.0	1	0.7	0.0	0.0	0.0	0.0	0.0	0.0	0.0	0.0	0.0	0.0	0.0	0.0				
	790	49.80000099657721	35.0	35.0	35.0	1.0	60.0	1	49.8	0.0	0.0	0.0	0.0	0.0	0.0	0.0	0.0	0.0	0.0	0.0	0.0				
	795	1.8900009964729108	1.0	1.0	1.0	1.0	2.0	1	1.8900000000000001	0.0	0.0	0.0	0.0	0.0	0.0	0.0	0.0	0.0	0.0	0.0	0.0				
	798	2.9900009965358634	3.0	3.0	3.0	1.0	4.0	1	2.99	0.0	0.0	0.0	0.0	0.0	0.0	0.0	0.0	0.0	0.0	0.0	0.0				
	814	44.92000099649003	12.080620323179819	42.0	0.0	1.0	54.0	1	44.92	0.0	0.0	0.0	0.0	0.0	0.0	0.0	0.0	0.0	0.0	0.0	0.0				
	834	55.00000096656975	82.99999869886825	83.0	0.0	1.0	110.0	1	55.00000000000001	0.0	0.0	0.0	0.0	0.0	0.0	0.0	0.0	0.0	0.0	0.0	0.0				
	878	2.9900009964409158	0.0	0.0	0.0	1.0	4.0	1	2.99	0.0	0.0	0.0	0.0	0.0	0.0	0.0	0.0	0.0	0.0	0.0	0.0				
	884	2.4900009966357612	0.0	0.0	0.0	1.0	3.0	1	2.49	0.0	0.0	0.0	0.0	0.0	0.0	0.0	0.0	0.0	0.0	0.0	0.0				
	892	31.870000996598375	25.262758864025773	42.0	6.0	1.0	38.0	1	31.869999999999997	0.0	0.0	0.0	0.0	0.0	0.0	0.0	0.0	0.0	0.0	0.0	0.0				
	895	8.960000996524215	7.000000000000001	7.000000000000001	7.000000000000001	1.0	11.0	1	8.96	0.0	0.0	0.0	0.0	0.0	0.0	0.0	0.0	0.0	0.0	0.0	0.0				
	901	3.680000996466462	2.0	2.0	2.0	1.0	4.0	1	3.6799999999999997	0.0	0.0	0.0	0.0	0.0	0.0	0.0	0.0	0.0	0.0	0.0	0.0				
	910	4.580000996492757	3.0	3.0	3.0	1.0	6.0	1	4.58	0.0	0.0	0.0	0.0	0.0	0.0	0.0	0.0	0.0	0.0	0.0	0.0				
	911	370.0000036890924	65.65333144556504	224.00000000000003	0.0	1.0	415.0	1	370.0	0.0	0.0	0.0	0.0	0.0	0.0	0.0	0.0	0.0	0.0	0.0	0.0				
	912	2.675335738124659	46.92378972097681	224.00000000000003	0.0	1.0	415.0	1	370.0	0.0	0.0	0.0	0.0	0.0	0.0	0.0	0.0	0.0	0.0	0.0	0.0				
	914	15.9300009965514	10.0	10.0	10.0	1.0	19.0	1	15.93	0.0	0.0	0.0	0.0	0.0	0.0	0.0	0.0	0.0	0.0	0.0	0.0				
	917	2.090000996459267	0.0	0.0	0.0	1.0	3.0	1	2.09	0.0	0.0	0.0	0.0	0.0	0.0	0.0	0.0	0.0	0.0	0.0	0.0				
	919	21.91000099586129	12.0	12.0	12.0	1.0	26.0	1	21.91	0.0	0.0	0.0	0.0	0.0	0.0	0.0	0.0	0.0	0.0	0.0	0.0				
	920	1.990000996354729	0.0	0.0	0.0	1.0	2.0	1	1.9900000000000002	0.0	0.0	0.0	0.0	0.0	0.0	0.0	0.0	0.0	0.0	0.0	0.0				
	929	63.730000996407675	29.000000361312807	50.0	28.999999999999996	1.0	77.0	1	63.73	0.0	0.0	0.0	0.0	0.0	0.0	0.0	0.0	0.0	0.0	0.0	0.0				
	959	2.490000996719384	1.0	1.0	1.0	1.0	3.0	1	2.49	0.0	0.0	0.0	0.0	0.0	0.0	0.0	0.0	0.0	0.0	0.0	0.0				
	968	0.700000996771737	0.0	0.0	0.0	1.0	1.0	1	0.7	0.0	0.0	0.0	0.0	0.0	0.0	0.0	0.0	0.0	0.0	0.0	0.0				
	993	3.980000996814785	1.0	1.0	1.0	1.0	5.0	1	3.9800000000000004	0.0	0.0	0.0	0.0	0.0	0.0	0.0	0.0	0.0	0.0	0.0	0.0				
	994	1.9900009968147874	1.0	1.0	1.0	1.0	2.0	1	1.9900000000000002	0.0	0.0	0.0	0.0	0.0	0.0	0.0	0.0	0.0	0.0	0.0	0.0				
	995	-9.804782708281375e-7	37.99999663938032	38.0	0.0	1.0	60.0	1	100.0	0.0	0.0	0.0	0.0	0.0	0.0	0.0	0.0	0.0	0.0	0.0	0.0				
	996	-9.71192035081284e-7	10.33856222898093	38.0	0.0	1.0	60.0	1	50.0	0.0	0.0	0.0	0.0	0.0	0.0	0.0	0.0	0.0	0.0	0.0	0.0				
	997	-9.783116426714937e-7	37.99995644386367	38.0	0.0	1.0	60.0	1	50.0	0.0	0.0	0.0	0.0	0.0	0.0	0.0	0.0	0.0	0.0	0.0	0.0				
	1004	4.280000996622008	3.0	3.0	3.0	1.0	5.0	1	4.28	0.0	0.0	0.0	0.0	0.0	0.0	0.0	0.0	0.0	0.0	0.0	0.0				
	1024	0.10000099675239815	0.0	0.0	0.0	1.0	0.0	1	0.1	0.0	0.0	0.0	0.0	0.0	0.0	0.0	0.0	0.0	0.0	0.0	0.0				
	1027	24.900000996422033	13.0	13.0	13.0	1.0	30.0	1	24.9	0.0	0.0	0.0	0.0	0.0	0.0	0.0	0.0	0.0	0.0	0.0	0.0				
	1028	2.9900009964223666	3.0	3.0	3.0	1.0	4.0	1	2.99	0.0	0.0	0.0	0.0	0.0	0.0	0.0	0.0	0.0	0.0	0.0	0.0				
	1029	24.90000099643138	14.000000000000002	14.000000000000002	14.000000000000002	1.0	30.0	1	24.9	0.0	0.0	0.0	0.0	0.0	0.0	0.0	0.0	0.0	0.0	0.0	0.0				
	1053	59.76000099649209	19.97272458376691	53.0	0.0	1.0	72.0	1	59.760000000000005	0.0	0.0	0.0	0.0	0.0	0.0	0.0	0.0	0.0	0.0	0.0	0.0				
	1054	29.880000996710432	7.491942699055261	31.0	0.0	1.0	36.0	1	29.880000000000003	0.0	0.0	0.0	0.0	0.0	0.0	0.0	0.0	0.0	0.0	0.0	0.0				
	1105	7.9700009965931224	10.0	10.0	10.0	1.0	10.0	1	7.969999999999999	0.0	0.0	0.0	0.0	0.0	0.0	0.0	0.0	0.0	0.0	0.0	0.0				
	1106	22.9100009966075	13.0	13.0	13.0	1.0	28.0	1	22.91	0.0	0.0	0.0	0.0	0.0	0.0	0.0	0.0	0.0	0.0	0.0	0.0				
	1107	10.56000099645607	3.0	3.0	3.0	1.0	13.0	1	10.56	0.0	0.0	0.0	0.0	0.0	0.0	0.0	0.0	0.0	0.0	0.0	0.0				
	1138	44.82000099639943	23.521680514632344	41.0	0.0	1.0	54.0	1	44.82	0.0	0.0	0.0	0.0	0.0	0.0	0.0	0.0	0.0	0.0	0.0	0.0				
	1140	230.00000228404568	49.79540309994581	199.0	-87.0	1.0	252.0	1	229.99999999999997	0.0	0.0	0.0	0.0	0.0	0.0	0.0	0.0	0.0	0.0	0.0	0.0				
	1141	-9.56860874428644e-7	57.36380191583622	190.0	-89.0	1.0	251.0	1	225.0	0.0	0.0	0.0	0.0	0.0	0.0	0.0	0.0	0.0	0.0	0.0	0.0				
	1175	37.84000099667308	20.0	20.0	20.0	1.0	45.0	1	37.84	0.0	0.0	0.0	0.0	0.0	0.0	0.0	0.0	0.0	0.0	0.0	0.0				
	1182	-9.849721924497616e-7	-0.6561207407750331	125.0	-50.0	1.0	133.0	1	120.0	0.0	0.0	0.0	0.0	0.0	0.0	0.0	0.0	0.0	0.0	0.0	0.0				
	1183	120.00000119220005	-3.2798635628988735	125.0	-50.0	1.0	133.0	1	120.0	0.0	0.0	0.0	0.0	0.0	0.0	0.0	0.0	0.0	0.0	0.0	0.0				
	1184	-9.53143137862284e-7	70.41689164780138	125.0	-50.0	1.0	133.0	1	120.0	0.0	0.0	0.0	0.0	0.0	0.0	0.0	0.0	0.0	0.0	0.0	0.0				
	1191	106.56000106213936	21.582650636639524	129.0	-47.0	1.0	128.0	1	106.56000000000002	0.0	0.0	0.0	0.0	0.0	0.0	0.0	0.0	0.0	0.0	0.0	0.0				
	1192	250.0000024928686	48.4553988878387	125.0	-50.0	1.0	123.0	1	250.0	0.0	0.0	0.0	0.0	0.0	0.0	0.0	0.0	0.0	0.0	0.0	0.0				
	1201	99.59000099640022	30.599327726255964	90.0	0.0	1.0	120.0	1	99.59	0.0	0.0	0.0	0.0	0.0	0.0	0.0	0.0	0.0	0.0	0.0	0.0				
	1202	99.5900009964002	0.04492252725497491	90.0	0.0	1.0	120.0	1	99.59	0.0	0.0	0.0	0.0	0.0	0.0	0.0	0.0	0.0	0.0	0.0	0.0				
	1203	99.59000099641925	5.505262244921892	90.0	0.0	1.0	120.0	1	99.59	0.0	0.0	0.0	0.0	0.0	0.0	0.0	0.0	0.0	0.0	0.0	0.0				
	1232	51.79000099659938	11.812315757617535	41.0	0.0	1.0	62.0	1	51.790000000000006	0.0	0.0	0.0	0.0	0.0	0.0	0.0	0.0	0.0	0.0	0.0	0.0				
	1233	14.94000099661984	6.084148440782345	41.0	0.0	1.0	18.0	1	14.940000000000001	0.0	0.0	0.0	0.0	0.0	0.0	0.0	0.0	0.0	0.0	0.0	0.0				
	1244	18.920000996545767	20.0	20.0	20.0	1.0	23.0	1	18.92	0.0	0.0	0.0	0.0	0.0	0.0	0.0	0.0	0.0	0.0	0.0	0.0				
	1247	15.930000996546692	12.0	12.0	12.0	1.0	19.0	1	15.93	0.0	0.0	0.0	0.0	0.0	0.0	0.0	0.0	0.0	0.0	0.0	0.0				
	1250	197.1900019683899	33.870981700801494	151.0	0.0	1.0	237.0	1	197.19	0.0	0.0	0.0	0.0	0.0	0.0	0.0	0.0	0.0	0.0	0.0	0.0				
	1268	0.5000009965473021	0.0	0.0	0.0	1.0	1.0	1	0.5	0.0	0.0	0.0	0.0	0.0	0.0	0.0	0.0	0.0	0.0	0.0	0.0				
	1316	1.0000009966925536	0.0	0.0	0.0	1.0	1.0	1	1.0	0.0	0.0	0.0	0.0	0.0	0.0	0.0	0.0	0.0	0.0	0.0	0.0				
	1325	1.390000996424212	0.0	0.0	0.0	1.0	2.0	1	1.39	0.0	0.0	0.0	0.0	0.0	0.0	0.0	0.0	0.0	0.0	0.0	0.0				
	1349	1.490000996883405	0.0	0.0	0.0	1.0	2.0	1	1.49	0.0	0.0	0.0	0.0	0.0	0.0	0.0	0.0	0.0	0.0	0.0	0.0				
	1356	1.0000009965592218	2.0	2.0	2.0	1.0	1.0	1	1.0	0.0	0.0	0.0	0.0	0.0	0.0	0.0	0.0	0.0	0.0	0.0	0.0				
	1359	0.8000009966444153	1.0	1.0	1.0	1.0	1.0	1	0.8	0.0	0.0	0.0	0.0	0.0	0.0	0.0	0.0	0.0	0.0	0.0	0.0				
	1393	12.750000996600702	-8.749476476793912e-7	11.0	0.0	1.0	15.0	1	12.75	0.0	0.0	0.0	0.0	0.0	0.0	0.0	0.0	0.0	0.0	0.0	0.0				
	1403	4.280000996498581	1.0	1.0	1.0	1.0	5.0	1	4.28	0.0	0.0	0.0	0.0	0.0	0.0	0.0	0.0	0.0	0.0	0.0	0.0				
	1416	335.5191996398719	28.361831719385172	180.0	10.0	1.0	246.0	1	371.0	0.0	0.0	0.0	0.0	0.0	0.0	0.0	0.0	0.0	0.0	0.0	0.0				
	1417	120.00000094291107	23.9267665657425	120.0	5.0	1.0	123.0	1	120.0	0.0	0.0	0.0	0.0	0.0	0.0	0.0	0.0	0.0	0.0	0.0	0.0				
	1418	1.795510409743121e-7	8.17889033159468	90.0	5.0	1.0	123.0	1	20.0	0.0	0.0	0.0	0.0	0.0	0.0	0.0	0.0	0.0	0.0	0.0	0.0				
	1426	208.70119837759069	27.00000004056566	68.0	27.0	1.0	106.0	1	495.0	0.0	0.0	0.0	0.0	0.0	0.0	0.0	0.0	0.0	0.0	0.0	0.0				
	1429	0.2000009965312792	0.0	0.0	0.0	1.0	0.0	1	0.2	0.0	0.0	0.0	0.0	0.0	0.0	0.0	0.0	0.0	0.0	0.0	0.0				
	1469	0.6000009966309571	0.0	0.0	0.0	1.0	1.0	1	0.6	0.0	0.0	0.0	0.0	0.0	0.0	0.0	0.0	0.0	0.0	0.0	0.0				
	1475	2.090000996527937	2.0	2.0	2.0	1.0	3.0	1	2.09	0.0	0.0	0.0	0.0	0.0	0.0	0.0	0.0	0.0	0.0	0.0	0.0				
	1504	31.17000099658754	2.0	2.0	2.0	1.0	37.0	1	31.17	0.0	0.0	0.0	0.0	0.0	0.0	0.0	0.0	0.0	0.0	0.0	0.0				
	1505	48.80000099657467	4.0	4.0	4.0	1.0	59.0	1	48.8	0.0	0.0	0.0	0.0	0.0	0.0	0.0	0.0	0.0	0.0	0.0	0.0				
	1514	2.2900009938717494	1.0	1.0	1.0	1.0	3.0	1	2.29	0.0	0.0	0.0	0.0	0.0	0.0	0.0	0.0	0.0	0.0	0.0	0.0				
	1534	0.30000099655011536	0.0	0.0	0.0	1.0	0.0	1	0.3	0.0	0.0	0.0	0.0	0.0	0.0	0.0	0.0	0.0	0.0	0.0	0.0				
	1536	-9.778520405408611e-7	27.606145669887418	190.0	-89.0	1.0	251.0	1	225.0	0.0	0.0	0.0	0.0	0.0	0.0	0.0	0.0	0.0	0.0	0.0	0.0				
	1537	225.0000022422542	43.986649461308765	202.99999999999997	-95.0	1.0	255.0	1	225.0	0.0	0.0	0.0	0.0	0.0	0.0	0.0	0.0	0.0	0.0	0.0	0.0				
	1538	215.0000021376521	21.13931524903943	190.0	-89.0	1.0	255.0	1	215.0	0.0	0.0	0.0	0.0	0.0	0.0	0.0	0.0	0.0	0.0	0.0	0.0				
	1542	8.960000996574367	3.0	3.0	3.0	1.0	11.0	1	8.96	0.0	0.0	0.0	0.0	0.0	0.0	0.0	0.0	0.0	0.0	0.0	0.0				
	1543	1.2000009964772322	0.0	0.0	0.0	1.0	1.0	1	1.2	0.0	0.0	0.0	0.0	0.0	0.0	0.0	0.0	0.0	0.0	0.0	0.0				
	1550	1.7900009965033932	1.0	1.0	1.0	1.0	2.0	1	1.79	0.0	0.0	0.0	0.0	0.0	0.0	0.0	0.0	0.0	0.0	0.0	0.0				
	1566	54.77000099658543	20.00002010183432	47.0	20.0	1.0	66.0	1	54.77000000000001	0.0	0.0	0.0	0.0	0.0	0.0	0.0	0.0	0.0	0.0	0.0	0.0				
	1587	63.74000099653669	27.0	27.0	27.0	1.0	77.0	1	63.739999999999995	0.0	0.0	0.0	0.0	0.0	0.0	0.0	0.0	0.0	0.0	0.0	0.0				
	1600	17.43000099644517	3.0	3.0	3.0	1.0	21.0	1	17.43	0.0	0.0	0.0	0.0	0.0	0.0	0.0	0.0	0.0	0.0	0.0	0.0				
	1602	81.81576484002684	13.046393287431918	90.0	0.0	1.0	144.0	1	120.0	0.0	0.0	0.0	0.0	0.0	0.0	0.0	0.0	0.0	0.0	0.0	0.0				
	1603	120.00000118086417	75.00358139268003	90.0	0.0	1.0	144.0	1	120.0	0.0	0.0	0.0	0.0	0.0	0.0	0.0	0.0	0.0	0.0	0.0	0.0				
	1609	0.3000009972301518	0.0	0.0	0.0	1.0	0.0	1	0.3	0.0	0.0	0.0	0.0	0.0	0.0	0.0	0.0	0.0	0.0	0.0	0.0				
	1617	2.0000009969750017	0.0	0.0	0.0	1.0	2.0	1	2.0	0.0	0.0	0.0	0.0	0.0	0.0	0.0	0.0	0.0	0.0	0.0	0.0				
	1620	1.600000996956386	0.0	0.0	0.0	1.0	2.0	1	1.6	0.0	0.0	0.0	0.0	0.0	0.0	0.0	0.0	0.0	0.0	0.0	0.0				
...
];

%% branch data
%    f_bus    t_bus    r    x    b    rateA    rateB    rateC    ratio    angle    status    angmin    angmax
mpc.branch = [
	16	1	0.00155	0.01169	0.0182	160.0	160.0	160.0	0	0	1	-60.0001403060998	60.0001403060998	65.0892330594064	1.6708044532660418	-65.03273933741761	-3.3616240846990415				
	355	1	0.00157	0.06612	0.0	160.0	160.0	160.0	1.0099	0.0	1	-60.0001403060998	60.0001403060998	-64.97543571420927	-0.9483020677986764	65.03273933741761	3.3616240846990415				
	17	2	0.00155	0.01169	0.0182	160.0	160.0	160.0	0	0	1	-60.0001403060998	60.0001403060998	112.30902680050947	14.78963088040057	-112.13643875671121	-15.584283793335487				
	354	2	0.00157	0.06612	0.0	160.0	160.0	160.0	1.022	0.0	1	-60.0001403060998	60.0001403060998	-111.96119339431054	-8.20388674751829	112.13643875671121	15.584283793335487				
	10	3	0.01068	0.07895	0.1226	274.0	274.0	274.0	0	0	1	-60.0001403060998	60.0001403060998	110.9736556463502	3.690453037496074	-109.82600680938842	-9.18196202929678				
	219	3	0.00165	0.06736	0.0	160.0	160.0	160.0	1.027	0.0	1	-60.0001403060998	60.0001403060998	-44.843842139480266	-9.36264793226555	44.875094209199254	10.638490002733205				
	220	3	0.00165	0.06736	0.0	160.0	160.0	160.0	0.9955	0.0	1	-60.0001403060998	60.0001403060998	-64.88889570114243	3.9883208945197	64.95091260018914	-1.456527973436424				
	7	4	0.01674	0.09711	0.14423	377.0	377.0	377.0	0	0	1	-60.0001403060998	60.0001403060998	-150.1767978531987	8.113277695499557	153.67130512111905	-3.885140249638977				
	11	4	0.00293	0.01599	0.02478	335.0	335.0	335.0	0	0	1	-60.0001403060998	60.0001403060998	114.71970177197188	5.763637504312839	-114.38037405893502	-6.727993746448645				
	14	4	0.00442	0.03223	0.04985	463.99999999999994	463.99999999999994	463.99999999999994	0	0	1	-60.0001403060998	60.0001403060998	156.08053391756334	-42.1278479417341	-155.05632598421656	43.98754567889534				
	16	4	0.00888	0.06665	0.08896	377.0	377.0	377.0	0	0	1	-60.0001403060998	60.0001403060998	158.4529902966079	5.294494853772892	-156.52992558905586	-1.0757268866410394				
	22	4	0.00783	0.043	0.04962	350.0	350.0	350.0	0	0	1	-60.0001403060998	60.0001403060998	-148.90169900147401	38.82522090659441	150.54283129267387	-35.45127851789299				
	245	4	0.00165	0.06901	0.0	160.0	160.0	160.0	1.0594	0.0	1	-60.0001403060998	60.0001403060998	-74.36946336665345	-9.743683718905459	74.45280351155532	13.22932214295373				
	246	4	0.00165	0.06901	0.0	160.0	160.0	160.0	1.0448	0.0	1	-60.0001403060998	60.0001403060998	-47.26559896609056	11.502380530586368	47.29968570685917	-10.076728421227417				
	5	6	0.00064	0.0305	0.0	400.0	400.0	400.0	1.0435	-0.6	1	-60.0001403060998	60.0001403060998	-188.73923147165107	-17.173613308712937	188.9654534876257	27.954506257501322				
	7	5	0.00525	0.03988	0.06195	381.0	381.0	381.0	0	0	1	-60.0001403060998	60.0001403060998	-73.9832196356757	-9.96011743104857	74.24829565224884	5.162010928105911				
	10	5	0.01459	0.11219	0.16553	381.0	381.0	381.0	0	0	1	-60.0001403060998	60.0001403060998	-2.487797237191634	13.478169810339436	2.555601145204837	-31.689185114725344				
	309	5	0.00165	0.0686	0.0	160.0	160.0	160.0	1.0646	0.0	1	-60.0001403060998	60.0001403060998	-55.80679608777693	-28.555260341643162	55.86775475467935	31.089663098918983				
	309	5	0.00165	0.0686	0.0	160.0	160.0	160.0	1.0523	0.0	1	-60.0001403060998	60.0001403060998	-56.0183298910091	-10.563517150524767	56.067579919518074	12.61112439641339				
	6	8	0.00112	0.01329	0.34125	1316.0	1316.0	1316.0	0	0	1	-60.0001403060998	60.0001403060998	-146.57528524264433	-42.91264285788669	146.81532136893992	10.355954311145283				
	6	9	0.00299	0.03675	0.9184	1427.0	1427.0	1427.0	0	0	1	-60.0001403060998	60.0001403060998	101.25877676910875	-79.0888709400379	-100.93272026695253	-12.570717357971908				
	15	6	0.00298	0.03417	0.93504	1427.0	1427.0	1427.0	0	0	1	-60.0001403060998	60.0001403060998	-131.26513485726684	-38.97450077201055	131.76666804062776	-51.63328176063079				
	31	6	0.0015	0.01506	0.4032	1385.0	1385.0	1385.0	0	0	1	-60.0001403060998	60.0001403060998	463.440507834646	-125.95454141859939	-460.08272016231047	118.50818019481049				
	310	6	0.0015	0.06188	0.0	250.0	250.0	250.0	1.0613	0.0	1	-60.0001403060998	60.0001403060998	-184.1608619254689	-6.287807859698007	184.66710710759267	27.172109106243592				
	12	7	0.01211	0.08742	0.14017	381.0	381.0	381.0	0	0	1	-60.0001403060998	60.0001403060998	-50.54279810781441	7.767827477445738	50.84899379777457	-20.96336485720768				
	13	7	0.00205	0.01326	0.02243	335.0	335.0	335.0	0	0	1	-60.0001403060998	60.0001403060998	20.65818292596594	11.14381630868508	-20.647344177962122	-13.529094247093013				
	19	7	0.0057	0.0407	0.06021	323.0	323.0	323.0	0	0	1	-60.0001403060998	60.0001403060998	-61.207786179182236	26.17011874744411	61.445103926333275	-31.103494556171064				
	21	7	0.00093	0.00651	0.01113	160.0	160.0	160.0	0	0	1	-60.0001403060998	60.0001403060998	-79.95345160481473	22.91107953552258	80.01248724836421	-23.714787324268006				
	29	7	0.01269	0.07498	0.1302	362.0	362.0	362.0	0	0	1	-60.0001403060998	60.0001403060998	121.99156312397712	-19.491809617810592	-120.25262365728398	15.511050242661629				
	321	7	0.00041	0.03368	0.0	250.0	250.0	250.0	1.0323	0.0	1	-60.0001403060998	60.0001403060998	-89.41526577964468	-10.122436023852167	89.44588656229831	12.637821291595074				
	322	7	0.00165	0.06775	0.0	160.0	160.0	160.0	1.0569	0.0	1	-60.0001403060998	60.0001403060998	-83.14275616234892	-56.24366116825368	83.30751378935015	63.00870918603208				
	8	18	0.00336	0.03977	1.02163	1316.0	1316.0	1316.0	0	0	1	-60.0001403060998	60.0001403060998	-146.81532136893992	-10.355954311145283	147.56922435347772	-86.1894981086887				
	332	9	0.00087	0.05244	-0.02144	330.0	330.0	330.0	1.0781	0.0	1	-60.0001403060998	60.0001403060998	-100.84730888099807	-5.180919232852948	100.93272026695253	12.570717357971908				
	171	10	0.01409	0.10413	0.15972	463.99999999999994	463.99999999999994	463.99999999999994	0	0	1	-60.0001403060998	60.0001403060998	-96.22284128638256	-11.912499621005985	97.3947546776761	2.435920355139943				
	346	10	0.00124	0.06839	0.0	160.0	160.0	160.0	1.0054	0.0	1	-60.0001403060998	60.0001403060998	-98.75382520722306	18.02535600138219	98.86016692411712	-12.160267276878706				
	347	10	0.00124	0.06839	0.0	160.0	160.0	160.0	1.024	0.0	1	-60.0001403060998	60.0001403060998	-86.00615719399404	-5.832333612821954	86.08672395598641	10.275850429483139				
	16	11	0.0057	0.03952	0.07553	463.99999999999994	463.99999999999994	463.99999999999994	0	0	1	-60.0001403060998	60.0001403060998	220.45428939740228	2.090999501834476	-218.073205907459	5.712032589764586				
	17	11	0.0057	0.03952	0.07553	463.99999999999994	463.99999999999994	463.99999999999994	0	0	1	-60.0001403060998	60.0001403060998	274.5260859262039	-12.444832545501168	-270.8046314985217	29.575473791891998				
	111	11	0.01068	0.06196	0.09496	394.0	394.0	394.0	0	0	1	-60.0001403060998	60.0001403060998	-201.48688919364147	60.83636806238608	205.6131965933637	-47.84454613914338				
	352	11	0.00165	0.06901	0.0	160.0	160.0	160.0	1.0412	0.0	1	-60.0001403060998	60.0001403060998	-92.65434385186008	12.824421232843608	92.77967525084459	-7.582530418346112				
	353	11	0.00165	0.06901	0.0	160.0	160.0	160.0	1.0559	0.0	1	-60.0001403060998	60.0001403060998	-75.67925077696597	-10.778503571089969	75.7652637898005	14.375932671520081				
	140	12	0.01465	0.10589	0.17085	463.99999999999994	463.99999999999994	463.99999999999994	0	0	1	-60.0001403060998	60.0001403060998	28.661423051087258	18.853894320732458	-28.454755758799948	-36.828780891541655				
	359	12	0.00155	0.06612	0.0	160.0	160.0	160.0	1.0395	0.0	1	-60.0001403060998	60.0001403060998	-57.06867234700186	-7.638695383743264	57.11571351503232	9.645380564500291				
	360	12	0.00157	0.06612	0.0	160.0	160.0	160.0	1.059	0.0	1	-60.0001403060998	60.0001403060998	-21.869687322478157	-18.90375228631636	21.881840351582042	19.415572849595627				
	29	13	0.01345	0.08114	0.14113	339.0	339.0	339.0	0	0	1	-60.0001403060998	60.0001403060998	109.6152757706481	-21.0342027779729	-108.1206262341651	14.56977876818689				
	365	13	0.00165	0.06901	0.0	160.0	160.0	160.0	1.0312	0.0	1	-60.0001403060998	60.0001403060998	-40.141224396338636	-0.26777727229414816	40.16551998636521	1.2839219194051108				
	366	13	0.00165	0.06901	0.0	160.0	160.0	160.0	0.9872	0.0	1	-60.0001403060998	60.0001403060998	-47.25230343297578	28.863710044823616	47.296923321833944	-26.997516996277078				
	17	14	0.00384	0.02853	0.04588	463.99999999999994	463.99999999999994	463.99999999999994	0	0	1	-60.0001403060998	60.0001403060998	262.89418916354975	36.080125463524936	-260.54719095073267	-23.857916989450608				
	367	14	0.00157	0.06798	0.0	160.0	160.0	160.0	1.0664	0.0	1	-60.0001403060998	60.0001403060998	-58.8844106571755	-27.892266790075148	58.94632562206431	30.57314533347676				
	368	14	0.00165	0.06901	0.0	160.0	160.0	160.0	1.0777	0.0	1	-60.0001403060998	60.0001403060998	-45.471246938240796	-33.359698705368366	45.52033141110501	35.41261959770796				
	18	15	0.00358	0.04262	1.0944	1662.0	1662.0	1662.0	0	0	1	-60.0001403060998	60.0001403060998	287.487648553136	-70.56768156717578	-284.58503369496356	-7.094139036959388				
	15	165	0.00207	0.02474	0.664	831.0	831.0	831.0	0	0	1	-60.0001403060998	60.0001403060998	298.9060259816321	-21.693492880617356	-297.10513905953405	-24.653957073115862				
	374	15	0.0015	0.06188	0.0	250.0	250.0	250.0	1.1502	0.0	1	-60.0001403060998	60.0001403060998	-116.67778420744999	-56.773962348508235	116.94414257059833	67.76213268958729				
	16	18	0.00036	0.02519	0.0	500.0	500.0	500.0	1.0605	0.0	1	-60.0001403060998	60.0001403060998	227.4080927612907	29.641160956515574	-227.2252243353806	-16.845450821306436				
	16	73	0.00909	0.0624	0.11142	463.99999999999994	463.99999999999994	463.99999999999994	0	0	1	-60.0001403060998	60.0001403060998	7.435401679694954	9.773733188706188	-7.410444798140533	-22.456513905167935				
	17	18	0.00036	0.02519	0.0	500.0	500.0	500.0	1.0607	0.0	1	-60.0001403060998	60.0001403060998	306.2559277149727	16.824594595388138	-305.9261207890237	6.25272891754338				
	17	74	0.00868	0.06405	0.09699	463.99999999999994	463.99999999999994	463.99999999999994	0	0	1	-60.0001403060998	60.0001403060998	66.2647811785513	-1.4922054680269161	-65.9336137448035	-7.196041048935486				
	20	18	0.00063	0.00749	0.39226	1427.0	1427.0	1427.0	0	0	1	-60.0001403060998	60.0001403060998	-164.7948649403053	100.6132042018913	165.0485486868579	-137.99696455899502				
	75	18	0.00219	0.02369	0.59584	1434.0	1434.0	1434.0	0	0	1	-60.0001403060998	60.0001403060998	43.225341361184164	-32.15236498682156	-43.18528309703659	-28.339726349200788				
	18	76	0.00137	0.01625	0.41184	1662.0	1662.0	1662.0	0	0	1	-60.0001403060998	60.0001403060998	-62.927769740680304	-18.242289053331064	62.980957153517245	-23.236372643402824				
	18	101	0.00231	0.02769	0.70144	1662.0	1662.0	1662.0	0	0	1	-60.0001403060998	60.0001403060998	-75.59102444991854	-50.57111855062134	75.72507680811927	-19.93444496781325				
	124	19	0.01696	0.12366	0.19699	463.99999999999994	463.99999999999994	463.99999999999994	0	0	1	-60.0001403060998	60.0001403060998	11.915154378578382	13.2751194444542	-11.80550522602408	-34.95600635683235				
	425	19	0.00165	0.06818	0.0	160.0	160.0	160.0	1.0241	0.0	1	-60.0001403060998	60.0001403060998	-72.9328254404878	-5.460936412717254	73.01329140520632	8.785887609388238				
	67	20	0.00331	0.03425	0.85888	831.0	831.0	831.0	0	0	1	-60.0001403060998	60.0001403060998	-66.6230134142359	28.045789266488434	66.92851712727875	-115.97924720334325				
	447	20	0.00137	0.06119	-0.01504	250.0	250.0	250.0	1.0796	0.0	1	-60.0001403060998	60.0001403060998	-47.74453454139641	2.798484547259833	47.77466978820146	0.10863607528180212				
	448	20	0.00137	0.06119	-0.01504	250.0	250.0	250.0	1.0923	0.0	1	-60.0001403060998	60.0001403060998	-50.05578879602961	-12.107159910730125	50.09167802482509	15.257406926170134				
	502	21	0.00165	0.07107	0.0	160.0	160.0	160.0	0.9922	0.0	1	-60.0001403060998	60.0001403060998	-79.84913728858271	27.404181629226	79.95345160481473	-22.91107953552258				
	112	22	0.00465	0.02618	0.02962	362.0	362.0	362.0	0	0	1	-60.0001403060998	60.0001403060998	-159.4087794435923	76.05197850877451	160.66491655024288	-72.3938339811101				
	526	22	0.00165	0.06901	0.0	160.0	160.0	160.0	1.0685	0.0	1	-60.0001403060998	60.0001403060998	-11.316534179175981	-35.930120713291394	11.338014334606374	36.828511941322354				
	527	22	0.00165	0.06901	0.0	160.0	160.0	160.0	1.0424	0.0	1	-60.0001403060998	60.0001403060998	23.10910554250417	3.5892086949813695	-23.101231883375245	-3.2598988668066644				
	37	23	0.01163	0.07031	0.1058	394.0	394.0	394.0	0	0	1	-60.0001403060998	60.0001403060998	5.764096972315991	-7.298042488222031	-5.760260986953112	-4.134204239392133				
	46	23	0.00837	0.04868	0.07348	457.0	457.0	457.0	0	0	1	-60.0001403060998	60.0001403060998	-11.695158277067746	-5.177749755275517	11.705871681096514	-2.707573872873151				
	53	23	0.01122	0.06558	0.09835	274.0	274.0	274.0	0	0	1	-60.0001403060998	60.0001403060998	83.16754591393385	-7.789408965774594	-82.45880313851764	1.2162539134836878				
	540	23	0.0014	0.0668	0.0	160.0	160.0	160.0	1.0182	0.0	1	-60.0001403060998	60.0001403060998	-76.43711812685979	-1.9956924773773124	76.51319244437424	5.625524198781596				
	54	24	0.00769	0.05727	0.08789	160.0	160.0	160.0	0	0	1	-60.0001403060998	60.0001403060998	40.44359731669726	-12.92563564485301	-40.325543257851535	4.053154457190573				
	545	24	0.00151	0.06715	0.0	160.0	160.0	160.0	1.0161	0.0	1	-60.0001403060998	60.0001403060998	-40.303224260699	5.0456846948015075	40.325543257851535	-4.053154457190573				
	41	25	0.00556	0.04145	0.0636	274.0	274.0	274.0	0	0	1	-60.0001403060998	60.0001403060998	76.65501401369157	-2.1117031165930817	-76.36213928704282	-2.774086218801994				
	53	25	0.00452	0.03368	0.05169	463.99999999999994	463.99999999999994	463.99999999999994	0	0	1	-60.0001403060998	60.0001403060998	-97.73245066744445	-4.852679993850857	98.1265702169394	2.0956984783264927				
	54	25	0.00019	0.0014	0.00213	463.99999999999994	463.99999999999994	463.99999999999994	0	0	1	-60.0001403060998	60.0001403060998	74.36800713277832	13.430292974300087	-74.35820645879845	-13.593962190874699				
	564	25	0.00157	0.07808	0.0	160.0	160.0	160.0	1.0276	0.0	1	-60.0001403060998	60.0001403060998	-52.55166050588166	-12.177865219618878	52.59377552890187	14.272349931350197				
	38	26	0.00698	0.05196	0.07967	160.0	160.0	160.0	0	0	1	-60.0001403060998	60.0001403060998	60.87604366987453	0.09628046610627368	-60.63578588989783	-6.882002341434725				
	568	26	0.00149	0.06616	0.0	160.0	160.0	160.0	1.013	0.0	1	-60.0001403060998	60.0001403060998	-60.583934843682826	-4.579676692048848	60.63578588989783	6.882002341434725				
	28	27	0.0	0.0001	0.0	876.0	876.0	876.0	0	0	1	-60.0001403060998	60.0001403060998	107.1558429761024	-7.940876221359039	-107.1558429761024	7.95131612472849				
	33	27	0.0024	0.01494	0.02253	160.0	160.0	160.0	0	0	1	-60.0001403060998	60.0001403060998	-77.55744471153501	-16.387435777667754	77.69399957040822	14.755313828348909				
	48	27	0.01213	0.06215	0.09371	362.0	362.0	362.0	0	0	1	-60.0001403060998	60.0001403060998	-115.4071181460413	6.783558254450566	116.9081423065122	-9.371064975603948				
	27	74	0.01116	0.07231	0.10367	304.0	304.0	304.0	0	0	1	-60.0001403060998	60.0001403060998	-87.44629890081802	-13.33556497747345	88.2237943029099	6.730788790355977				
	47	28	0.00248	0.01798	0.02759	463.99999999999994	463.99999999999994	463.99999999999994	0	0	1	-60.0001403060998	60.0001403060998	-39.02812743970952	-8.048534792798717	39.06337947410889	5.258922819803685				
	28	88	0.01488	0.08161	0.1148	362.0	362.0	362.0	0	0	1	-60.0001403060998	60.0001403060998	-146.2192224502113	2.681953401555354	149.10691713768054	0.21822962076914978				
	30	29	0.0	0.0001	0.0	876.0	876.0	876.0	0	0	1	-60.0001403060998	60.0001403060998	-43.72927242007285	-65.80181485868601	43.72927242007285	65.80750496117278				
	29	32	0.00034	0.02097	0.0	500.0	500.0	500.0	1.0619	0.0	1	-60.0001403060998	60.0001403060998	-366.5501008168111	-65.09118783967459	367.03442001326914	94.96228651533478				
	45	29	0.00545	0.04021	0.06699	463.99999999999994	463.99999999999994	463.99999999999994	0	0	1	-60.0001403060998	60.0001403060998	-24.780089596423295	-21.44235716463702	24.82711151941058	14.49703644195883				
	48	29	0.00574	0.04283	0.06573	463.99999999999994	463.99999999999994	463.99999999999994	0	0	1	-60.0001403060998	60.0001403060998	0.6477892809454537	-14.644314599098488	-0.641300862923844	7.51217242902357				
	613	29	0.00157	0.06775	0.0	160.0	160.0	160.0	1.0016	0.0	1	-60.0001403060998	60.0001403060998	-47.50024592548762	29.052149964387535	47.543177860222926	-27.199513927243498				
	46	30	0.00545	0.04021	0.06699	463.99999999999994	463.99999999999994	463.99999999999994	0	0	1	-60.0001403060998	60.0001403060998	-24.55407299424302	-21.247235616149585	24.60018053698228	14.295432423459795				
	49	30	0.00707	0.04541	0.06931	362.0	362.0	362.0	0	0	1	-60.0001403060998	60.0001403060998	0.3627652578063918	-14.033558684534949	-0.35590910525114566	6.506382103827852				
	32	31	0.0	0.0001	0.0	1593.0	1593.0	1593.0	0	0	1	-60.0001403060998	60.0001403060998	-606.9024573858276	-128.7620228407098	606.9024573858276	129.14349115386358				
	39	31	0.00176	0.02144	0.57344	1385.0	1385.0	1385.0	0	0	1	-60.0001403060998	60.0001403060998	86.20956968950482	-15.825211181813165	-86.07795522801743	-40.688950445329105				
	36	32	0.00167	0.0189	0.54176	498.00000000000006	498.00000000000006	498.00000000000006	0	0	1	-60.0001403060998	60.0001403060998	-238.85391495714993	-76.20361695857073	239.8680373725584	33.79973632537501				
	615	33	0.00163	0.06946	0.0	160.0	160.0	160.0	1.0291	0.0	1	-60.0001403060998	60.0001403060998	-77.46412209478852	-12.410632735206585	77.55744471153501	16.387435777667754				
	35	34	0.0	0.0001	0.0	1593.0	1593.0	1593.0	0	0	1	-60.0001403060998	60.0001403060998	-103.48030164854312	36.20737383162945	103.48030164854312	-36.196333362811394				
...